%nprocshared=40
%mem=364GB
%chk=7tg6+368Cl.chk
# b3lyp/genecp scrf=(solvent=water) 10f 6d force scf=maxcycles=500
symmetry=none

7tg6+368Cl

-12 1
 H                0   13.12800000   12.42100000  -31.60800000 M
 O                0   12.89400000   11.53900000  -31.90800000 M
 C                0   11.53400000   11.09200000  -31.76700000 M
 H                0   10.94800000   11.77100000  -32.38600000 M
 H                0   11.16700000   11.12700000  -30.74100000 M
 C                0   11.38700000    9.67600000  -32.30200000 M
 H                0   11.32200000    9.76400000  -33.38700000 M
 O                0   12.60800000    8.92500000  -32.07000000 M
 C                0   12.39500000    7.92200000  -31.11200000 M
 H                0   12.91400000    6.98200000  -31.29800000 M
 N                0   12.99300000    8.38900000  -29.76900000 M
 C                0   13.50900000    9.66600000  -29.68000000 M
 H                0   13.40100000   10.29500000  -30.55100000 M
 C                0   14.07600000   10.17900000  -28.58300000 M
 C                0   14.59300000   11.58900000  -28.53700000 M
 H                0   13.77600000   12.28300000  -28.73400000 M
 H                0   15.01100000   11.79100000  -27.55100000 M
 H                0   15.36800000   11.71700000  -29.29300000 M
 C                0   14.18000000    9.34300000  -27.42900000 M
 O                0   14.68600000    9.74000000  -26.38700000 M
 N                0   13.66700000    8.06800000  -27.57500000 M
 H                0   13.71600000    7.43300000  -26.69000000 M
 C                0   13.08300000    7.52300000  -28.69800000 M
 O                0   12.66400000    6.38000000  -28.71900000 M
 C                0   10.22900000    8.86200000  -31.73200000 M
 H                0    9.65500000    9.37400000  -30.96000000 M
 C                0   10.89500000    7.60200000  -31.13000000 M
 H                0   10.21900000    7.14200000  -30.41000000 M
 H                0   11.11500000    6.89100000  -31.92600000 M
 O                0    9.33500000    8.55100000  -32.82200000 M
 P                0    7.89000000    7.87300000  -32.60900000 M
 O                0    8.10700000    6.41600000  -32.76100000 M
 O                0    6.95200000    8.54500000  -33.53800000 M
 O                0    7.43900000    8.27600000  -31.12100000 M
 C                0    6.42000000    7.52200000  -30.45200000 M
 H                0    5.62000000    7.37700000  -31.17800000 M
 H                0    6.02100000    8.01800000  -29.56800000 M
 C                0    6.98200000    6.17500000  -30.05500000 M
 H                0    6.90400000    5.51500000  -30.91900000 M
 O                0    8.39500000    6.32700000  -29.84500000 M
 C                0    8.75600000    5.96600000  -28.54400000 M
 H                0    9.53500000    5.20400000  -28.51100000 M
 N                0    9.36200000    7.11100000  -27.85700000 M
 C                0    9.64000000    8.35600000  -28.37400000 M
 H                0    9.35800000    8.60200000  -29.38700000 M
 N                0   10.25100000    9.14700000  -27.53400000 M
 C                0   10.38500000    8.37200000  -26.38800000 M
 C                0   10.96100000    8.68300000  -25.13200000 M
 O                0   11.48400000    9.74200000  -24.76300000 M
 N                0   10.88500000    7.59600000  -24.25200000 M
 H                0   11.26700000    7.70100000  -23.33400000 M
 C                0   10.32000000    6.38300000  -24.56800000 M
 N                0   10.32100000    5.44000000  -23.62200000 M
 H                0   10.70500000    5.51400000  -22.69100000 M
 H                0    9.91100000    4.55100000  -23.87100000 M
 N                0    9.78800000    6.09300000  -25.73000000 M
 C                0    9.85500000    7.12500000  -26.58700000 M
 C                0    6.38600000    5.53600000  -28.80800000 M
 H                0    5.63500000    6.16300000  -28.32800000 M
 C                0    7.56600000    5.32500000  -27.84900000 M
 H                0    7.20200000    5.31300000  -26.82200000 M
 H                0    8.05200000    4.37500000  -28.07300000 M
 O                0    5.80200000    4.30000000  -29.15400000 M
 P                0    4.25200000    4.21100000  -29.56600000 M
 O                0    4.16900000    3.86000000  -31.00300000 M
 O                0    3.54900000    5.40800000  -29.05100000 M
 O                0    3.72800000    2.97100000  -28.71500000 M
 C                0    2.84000000    3.18700000  -27.64500000 M
 H                0    2.01700000    2.47800000  -27.73500000 M
 H                0    2.45100000    4.20300000  -27.70700000 M
 C                0    3.52200000    2.99400000  -26.30000000 M
 H                0    3.90200000    1.97600000  -26.21200000 M
 O                0    4.72500000    3.84800000  -26.20100000 M
 C                0    4.64500000    4.48800000  -24.95000000 M
 H                0    5.06500000    3.78300000  -24.23200000 M
 N                0    5.54400000    5.68800000  -24.81200000 M
 C                0    5.57500000    6.63700000  -25.79900000 M
 H                0    4.90300000    6.51400000  -26.63500000 M
 C                0    6.34200000    7.73700000  -25.74400000 M
 C                0    6.38400000    8.72400000  -26.86900000 M
 H                0    5.38600000    9.12800000  -27.03600000 M
 H                0    7.06700000    9.53500000  -26.61600000 M
 H                0    6.73000000    8.22800000  -27.77600000 M
 C                0    7.12300000    7.96700000  -24.55500000 M
 O                0    7.83500000    8.95500000  -24.41600000 M
 N                0    7.01000000    6.99700000  -23.58500000 M
 H                0    7.60900000    7.14700000  -22.68700000 M
 C                0    6.25100000    5.86400000  -23.63500000 M
 O                0    6.23100000    5.07500000  -22.71400000 M
 C                0    2.64100000    3.40400000  -25.10900000 M
 H                0    1.57500000    3.46300000  -25.32900000 M
 C                0    3.17600000    4.79200000  -24.82600000 M
 H                0    2.45500000    5.53600000  -25.16400000 M
 H                0    3.34100000    4.90700000  -23.75500000 M
 O                0    2.83900000    2.53200000  -23.96700000 M
 P                0    2.95000000    3.18200000  -22.49300000 M
 O                0    1.94800000    4.26700000  -22.34500000 M
 O                0    4.38400000    3.37300000  -22.19200000 M
 O                0    2.47900000    2.07700000  -21.45700000 M
 C                0    1.63900000    2.47800000  -20.35100000 M
 H                0    1.34600000    1.55600000  -19.84800000 M
 H                0    0.75100000    2.98000000  -20.73500000 M
 C                0    2.35000000    3.40600000  -19.33800000 M
 H                0    2.98000000    2.78500000  -18.70100000 M
 O                0    3.27800000    4.32100000  -19.98700000 M
 C                0    3.42400000    5.48800000  -19.20400000 M
 H                0    4.25500000    5.40000000  -18.50400000 M
 N                0    3.84800000    6.68700000  -20.10200000 M
 C                0    3.38400000    6.78000000  -21.41100000 M
 H                0    2.70700000    6.01500000  -21.76100000 M
 C                0    3.70600000    7.80000000  -22.24900000 M
 C                0    3.19500000    7.88400000  -23.65300000 M
 H                0    2.10600000    7.92200000  -23.64200000 M
 H                0    3.58500000    8.78400000  -24.12900000 M
 H                0    3.52200000    7.00700000  -24.21200000 M
 C                0    4.57900000    8.82500000  -21.76500000 M
 O                0    4.92000000    9.78100000  -22.46200000 M
 N                0    5.00100000    8.66900000  -20.46300000 M
 H                0    5.71700000    8.32900000  -18.13100000 M
 C                0    4.69100000    7.65700000  -19.59000000 M
 O                0    5.13200000    7.63900000  -18.45300000 M
 C                0    1.40300000    4.30000000  -18.53900000 M
 H                0    0.45400000    4.39600000  -19.06700000 M
 C                0    2.09700000    5.68600000  -18.46600000 M
 H                0    1.34100000    6.46700000  -18.38300000 M
 H                0    2.75100000    5.72000000  -17.59500000 M
 O                0    1.12600000    3.72600000  -17.23500000 M
 P                0    2.20000000    3.76300000  -16.03300000 M
 O                0    3.55500000    3.43400000  -16.52600000 M
 O                0    1.61100000    2.92800000  -14.96600000 M
 O                0    2.18200000    5.27700000  -15.51100000 M
 C                0    3.40600000    5.92600000  -15.15400000 M
 H                0    4.03200000    5.96200000  -16.04500000 M
 H                0    3.92800000    5.38400000  -14.36500000 M
 C                0    3.12600000    7.33400000  -14.68700000 M
 H                0    3.84400000    7.60400000  -13.91300000 M
 O                0    3.37700000    8.28000000  -15.76300000 M
 C                0    2.34500000    9.23300000  -15.76600000 M
 H                0    2.57300000   10.08400000  -15.12300000 M
 N                0    2.26500000    9.85400000  -17.13400000 M
 C                0    1.55100000    9.21700000  -18.13000000 M
 H                0    1.03000000    8.30800000  -17.87000000 M
 C                0    1.43100000    9.69500000  -19.37900000 M
 C                0    0.65000000    8.97000000  -20.43200000 M
 H                0   -0.38600000    8.86600000  -20.11000000 M
 H                0    0.68500000    9.53400000  -21.36400000 M
 H                0    1.08200000    7.98200000  -20.58900000 M
 C                0    2.07700000   10.93900000  -19.69300000 M
 O                0    2.01600000   11.44500000  -20.80800000 M
 N                0    2.76500000   11.52500000  -18.65100000 M
 H                0    3.24800000   12.47500000  -18.87900000 M
 C                0    2.90600000   11.05200000  -17.37400000 M
 O                0    3.54900000   11.65600000  -16.52700000 M
 C                0    1.68200000    7.56100000  -14.23900000 M
 H                0    1.08300000    6.65400000  -14.15800000 M
 C                0    1.10600000    8.45700000  -15.34300000 M
 H                0    0.29000000    7.93700000  -15.84500000 M
 H                0    0.73100000    9.38100000  -14.90300000 M
 O                0    1.68100000    8.21100000  -12.99600000 M
 P                0    1.73500000    7.38400000  -11.61900000 M
 O                0    1.88900000    5.94800000  -11.92300000 M
 O                0    0.59300000    7.82500000  -10.79200000 M
 O                0    3.04300000    7.94200000  -10.88700000 M
 C                0    2.89300000    8.65300000   -9.66400000 M
 H                0    3.27000000    8.01100000   -8.86800000 M
 H                0    1.83900000    8.86800000   -9.48800000 M
 C                0    3.67600000    9.95700000   -9.66800000 M
 H                0    4.73100000    9.72800000   -9.52000000 M
 O                0    3.62000000   10.58400000  -10.97600000 M
 C                0    2.81400000   11.75700000  -10.93300000 M
 H                0    3.36400000   12.67400000  -11.14400000 M
 N                0    1.87700000   11.65300000  -12.04400000 M
 C                0    0.95500000   10.65600000  -12.22300000 M
 H                0    0.85000000    9.88100000  -11.47800000 M
 N                0    0.27400000   10.75300000  -13.32500000 M
 C                0    0.76900000   11.89800000  -13.92800000 M
 C                0    0.39300000   12.49700000  -15.14800000 M
 O                0   -0.47300000   12.12400000  -15.95000000 M
 N                0    1.13000000   13.64600000  -15.40600000 M
 H                0    0.92500000   14.14800000  -16.24600000 M
 C                0    2.11500000   14.15200000  -14.59100000 M
 N                0    2.70800000   15.27400000  -15.02200000 M
 H                0    2.51500000   15.77300000  -15.87900000 M
 H                0    3.43900000   15.65100000  -14.43700000 M
 N                0    2.48600000   13.60100000  -13.43100000 M
 C                0    1.76600000   12.47000000  -13.16800000 M
 C                0    3.16500000   11.00800000   -8.70200000 M
 H                0    2.67200000   10.62800000   -7.80700000 M
 C                0    2.15100000   11.76300000   -9.56100000 M
 H                0    1.14500000   11.57200000   -9.18800000 M
 H                0    2.35900000   12.83200000   -9.51400000 M
 O                0    4.25900000   11.82900000   -8.28800000 M
 P                0    4.03700000   13.27900000   -7.62600000 M
 O                0    5.15100000   13.46800000   -6.67100000 M
 O                0    2.65200000   13.41100000   -7.11800000 M
 O                0    4.22200000   14.27200000   -8.86700000 M
 C                0    5.14700000   15.35000000   -8.79900000 M
 H                0    5.97600000   15.14300000   -9.47600000 M
 H                0    5.52800000   15.46800000   -7.78500000 M
 C                0    4.46400000   16.62900000   -9.22500000 M
 H                0    5.18200000   17.36700000   -9.58300000 M
 O                0    3.64900000   16.32700000  -10.38000000 M
 C                0    2.36100000   16.87700000  -10.25800000 M
 H                0    2.25100000   17.61800000  -11.05000000 M
 N                0    1.38000000   15.85700000  -10.60200000 M
 C                0    1.02900000   14.78600000   -9.83000000 M
 H                0    1.50700000   14.62400000   -8.87500000 M
 N                0    0.11000000   14.03800000  -10.36000000 M
 C                0   -0.18000000   14.65500000  -11.56200000 M
 C                0   -1.10400000   14.28400000  -12.56000000 M
 O                0   -1.86500000   13.30900000  -12.56800000 M
 N                0   -1.10100000   15.17400000  -13.62500000 M
 H                0   -1.72900000   14.99500000  -14.38200000 M
 C                0   -0.29900000   16.28800000  -13.71700000 M
 N                0   -0.44400000   17.02900000  -14.83100000 M
 H                0   -1.06700000   16.84700000  -15.60500000 M
 H                0    0.14700000   17.84400000  -14.91100000 M
 N                0    0.58200000   16.65100000  -12.78000000 M
 C                0    0.58500000   15.78600000  -11.73300000 M
 C                0    3.53900000   17.20700000   -8.15900000 M
 H                0    3.46100000   16.47700000   -7.35300000 M
 C                0    2.17800000   17.37700000   -8.82300000 M
 H                0    1.39700000   17.36000000   -8.06200000 M
 H                0    2.14800000   18.32900000   -9.35200000 M
 O                0    4.04500000   18.45700000   -7.59400000 M
 H                0    3.48800000   18.85100000   -6.91900000 M
 H                0   -4.42200000   13.72200000  -23.49000000 M
 O                0   -4.24800000   14.34000000  -22.77700000 M
 C                0   -5.28400000   15.22400000  -22.36100000 M
 H                0   -6.11000000   14.60400000  -22.01200000 M
 H                0   -5.62200000   15.84400000  -23.19200000 M
 C                0   -4.81700000   16.12200000  -21.22400000 M
 H                0   -5.52600000   16.94500000  -21.13200000 M
 O                0   -4.91100000   15.42200000  -19.96900000 M
 C                0   -3.93900000   15.94000000  -19.10000000 M
 H                0   -4.28300000   16.83900000  -18.58900000 M
 N                0   -3.73100000   14.95200000  -17.98200000 M
 C                0   -4.25700000   13.69500000  -18.09500000 M
 H                0   -4.79200000   13.41500000  -18.99000000 M
 C                0   -4.12200000   12.79700000  -17.11300000 M
 H                0   -4.54400000   11.80000000  -17.24200000 M
 C                0   -3.42400000   13.20200000  -15.93600000 M
 N                0   -3.26000000   12.34400000  -14.92200000 M
 H                0   -2.76000000   12.67000000  -14.10700000 M
 H                0   -3.62900000   11.40600000  -14.98400000 M
 N                0   -2.91700000   14.43400000  -15.80500000 M
 C                0   -3.06000000   15.34000000  -16.80900000 M
 O                0   -2.60000000   16.48700000  -16.71900000 M
 C                0   -3.36900000   16.60700000  -21.32100000 M
 H                0   -2.81600000   16.14100000  -22.13600000 M
 C                0   -2.72900000   16.20900000  -19.97000000 M
 H                0   -1.76800000   15.72700000  -20.15100000 M
 H                0   -2.57900000   17.10100000  -19.36200000 M
 O                0   -3.35900000   18.00600000  -21.51600000 M
 P                0   -2.40400000   18.66100000  -22.63100000 M
 O                0   -2.25500000   20.09800000  -22.28600000 M
 O                0   -2.90200000   18.27800000  -23.97400000 M
 O                0   -1.01600000   17.89400000  -22.43000000 M
 C                0    0.17300000   18.44700000  -22.93800000 M
 H                0   -0.09200000   19.20800000  -23.67200000 M
 H                0    0.78300000   17.68000000  -23.41500000 M
 C                0    0.96500000   19.08800000  -21.82100000 M
 H                0    0.65500000   20.12600000  -21.70300000 M
 O                0    0.62000000   18.46000000  -20.55800000 M
 C                0    1.70200000   17.68200000  -20.07800000 M
 H                0    2.07900000   18.04900000  -19.12300000 M
 N                0    1.16900000   16.33300000  -19.75000000 M
 C                0    0.54000000   15.60000000  -20.71600000 M
 H                0    0.44800000   15.99200000  -21.71800000 M
 C                0    0.03100000   14.39500000  -20.44300000 M
 H                0   -0.44500000   13.82200000  -21.23900000 M
 C                0    0.14900000   13.91800000  -19.10400000 M
 N                0   -0.34400000   12.72300000  -18.76900000 M
 H                0   -0.23900000   12.42400000  -17.81000000 M
 H                0   -0.80400000   12.14900000  -19.46200000 M
 N                0    0.75300000   14.63200000  -18.15000000 M
 C                0    1.26800000   15.85000000  -18.43700000 M
 O                0    1.83700000   16.53400000  -17.57600000 M
 C                0    2.46700000   18.94800000  -21.96000000 M
 H                0    2.79500000   18.81500000  -22.99100000 M
 C                0    2.77700000   17.68300000  -21.16000000 M
 H                0    3.22900000   16.93900000  -21.81600000 M
 H                0    3.46900000   17.92300000  -20.35300000 M
 O                0    3.11400000   20.09000000  -21.43500000 M
 P                0    4.53500000   20.54100000  -22.02500000 M
 O                0    4.55600000   22.01900000  -22.07900000 M
 O                0    4.79500000   19.72000000  -23.23500000 M
 O                0    5.54500000   20.11100000  -20.87600000 M
 C                0    5.08100000   20.08700000  -19.52900000 M
 H                0    4.36400000   19.27200000  -19.43100000 M
 H                0    4.58900000   21.03300000  -19.30100000 M
 C                0    6.21900000   19.86900000  -18.55100000 M
 H                0    5.98800000   20.37700000  -17.61500000 M
 O                0    6.27900000   18.48100000  -18.20100000 M
 C                0    7.17400000   17.82800000  -19.06600000 M
 H                0    7.83400000   17.12800000  -18.55300000 M
 N                0    6.40300000   16.96500000  -19.94900000 M
 C                0    6.14400000   17.14200000  -21.28000000 M
 H                0    6.56000000   17.98600000  -21.81100000 M
 N                0    5.42500000   16.17700000  -21.80600000 M
 C                0    5.19200000   15.32400000  -20.73900000 M
 C                0    4.48700000   14.11400000  -20.62800000 M
 N                0    3.86500000   13.53100000  -21.65800000 M
 H                0    3.37200000   12.66000000  -21.52300000 M
 H                0    3.88800000   13.96200000  -22.57100000 M
 N                0    4.45400000   13.52100000  -19.41200000 M
 C                0    5.08100000   14.10100000  -18.38500000 M
 H                0    5.06500000   13.64600000  -17.40600000 M
 N                0    5.77300000   15.23100000  -18.36800000 M
 C                0    5.78500000   15.79700000  -19.58900000 M
 C                0    7.60900000   20.19900000  -19.07300000 M
 H                0    7.62500000   21.01800000  -19.79200000 M
 C                0    8.03100000   18.89700000  -19.77100000 M
 H                0    8.32200000   19.11300000  -20.79900000 M
 H                0    8.87500000   18.45600000  -19.24000000 M
 O                0    8.47100000   20.58600000  -17.95400000 M
 P                0    9.85100000   19.83300000  -17.58100000 M
 O                0   10.36600000   20.53300000  -16.38000000 M
 O                0   10.74000000   19.70600000  -18.75800000 M
 O                0    9.40300000   18.37300000  -17.11400000 M
 C                0    9.96700000   17.81300000  -15.95600000 M
 H                0    9.28300000   18.04900000  -15.14100000 M
 H                0   10.94600000   18.24100000  -15.74300000 M
 C                0   10.09700000   16.30600000  -16.07700000 M
 H                0    9.80000000   15.88300000  -15.11700000 M
 O                0    9.13500000   15.76900000  -17.02500000 M
 C                0    9.68600000   14.56800000  -17.48900000 M
 H                0    9.53000000   13.78400000  -16.74800000 M
 N                0    8.93500000   14.05900000  -18.68100000 M
 C                0    9.00300000   14.74000000  -19.88200000 M
 H                0    9.64000000   15.61100000  -19.93300000 M
 C                0    8.36700000   14.33900000  -20.99600000 M
 C                0    8.45900000   15.10700000  -22.28100000 M
 H                0    9.50000000   15.15900000  -22.60000000 M
 H                0    7.86900000   14.60500000  -23.04800000 M
 H                0    8.07500000   16.11600000  -22.13000000 M
 C                0    7.58800000   13.12900000  -20.93100000 M
 O                0    6.97400000   12.69000000  -21.89800000 M
 N                0    7.57800000   12.49700000  -19.70200000 M
 H                0    7.62900000   11.44100000  -17.47000000 M
 C                0    8.21700000   12.89100000  -18.56100000 M
 O                0    8.13900000   12.25200000  -17.52300000 M
 C                0   11.47500000   15.79500000  -16.54400000 M
 H                0   12.15000000   16.59400000  -16.85100000 M
 C                0   11.14100000   14.91000000  -17.75800000 M
 H                0   11.74600000   15.21900000  -18.61100000 M
 H                0   11.35600000   13.86800000  -17.51900000 M
 O                0   12.11700000   15.05600000  -15.46500000 M
 P                0   13.04800000   13.76300000  -15.73800000 M
 O                0   13.72700000   13.44900000  -14.46300000 M
 O                0   13.88700000   13.93300000  -16.94200000 M
 O                0   12.00600000   12.59100000  -16.02700000 M
 C                0   11.17200000   12.11800000  -14.98700000 M
 H                0   10.19500000   12.58100000  -15.12600000 M
 H                0   11.56900000   12.39500000  -14.01000000 M
 C                0   11.02400000   10.60900000  -15.05600000 M
 H                0   10.41300000   10.27900000  -14.21600000 M
 O                0   10.25000000   10.25900000  -16.22600000 M
 C                0   11.06500000    9.63400000  -17.19300000 M
 H                0   10.73400000    8.62800000  -17.45000000 M
 N                0   10.93100000   10.35900000  -18.46000000 M
 C                0   11.45100000   11.58500000  -18.77900000 M
 H                0   12.07800000   12.10900000  -18.07200000 M
 N                0   11.16200000   11.98300000  -19.99900000 M
 C                0   10.39800000   10.94800000  -20.51200000 M
 C                0    9.77800000   10.75000000  -21.76600000 M
 N                0    9.83600000   11.63200000  -22.77100000 M
 H                0    9.37100000   11.43300000  -23.64500000 M
 H                0   10.34500000   12.49700000  -22.65500000 M
 N                0    9.09200000    9.60300000  -21.94400000 M
 C                0    9.03300000    8.72200000  -20.93800000 M
 H                0    8.49000000    7.79600000  -21.06000000 M
 N                0    9.57000000    8.79900000  -19.72300000 M
 C                0   10.24500000    9.94500000  -19.57400000 M
 C                0   12.33300000    9.83300000  -15.15600000 M
 H                0   13.18700000   10.39700000  -14.78000000 M
 C                0   12.50000000    9.59600000  -16.65400000 M
 H                0   13.46700000    9.98000000  -16.97800000 M
 H                0   12.44600000    8.52700000  -16.86100000 M
 O                0   12.24600000    8.60900000  -14.42400000 M
 P                0   13.51000000    7.61700000  -14.32700000 M
 O                0   13.37800000    6.83000000  -13.07700000 M
 O                0   14.74100000    8.38500000  -14.61700000 M
 O                0   13.26200000    6.57300000  -15.50300000 M
 C                0   12.50300000    5.41500000  -15.23000000 M
 H                0   11.70600000    5.70700000  -14.54600000 M
 H                0   13.12400000    4.65200000  -14.75900000 M
 C                0   11.89300000    4.85000000  -16.49100000 M
 H                0   10.87500000    4.52600000  -16.27700000 M
 O                0   11.74000000    5.90100000  -17.47200000 M
 C                0   12.09400000    5.39300000  -18.73000000 M
 H                0   11.24100000    4.94600000  -19.24000000 M
 N                0   12.46000000    6.53200000  -19.59500000 M
 C                0   13.19700000    7.55400000  -19.09500000 M
 H                0   13.54000000    7.52300000  -18.07100000 M
 C                0   13.51000000    8.60800000  -19.85000000 M
 H                0   14.10700000    9.41300000  -19.42100000 M
 C                0   13.03800000    8.62100000  -21.19600000 M
 N                0   13.32900000    9.65200000  -21.99200000 M
 H                0   12.97800000    9.62800000  -22.93900000 M
 H                0   13.88200000   10.42300000  -21.64500000 M
 N                0   12.30100000    7.61900000  -21.69600000 M
 C                0   11.99200000    6.56000000  -20.90400000 M
 O                0   11.32100000    5.60400000  -21.29400000 M
 C                0   12.72000000    3.75500000  -17.16700000 M
 H                0   13.57400000    3.42100000  -16.57800000 M
 C                0   13.21700000    4.41800000  -18.45800000 M
 H                0   14.30700000    4.43500000  -18.46200000 M
 H                0   12.86000000    3.85200000  -19.31800000 M
 O                0   11.89200000    2.63300000  -17.43500000 M
 P                0   12.43800000    1.14200000  -17.18100000 M
 O                0   11.48300000    0.44200000  -16.29600000 M
 O                0   13.85700000    1.24000000  -16.77600000 M
 O                0   12.38600000    0.47400000  -18.63100000 M
 C                0   11.86300000    1.21200000  -19.73200000 M
 H                0   11.70700000    2.24500000  -19.42200000 M
 H                0   10.91200000    0.77800000  -20.04000000 M
 C                0   12.82600000    1.18300000  -20.90200000 M
 H                0   12.39900000    0.58900000  -21.71000000 M
 O                0   12.95900000    2.50100000  -21.45600000 M
 C                0   14.12200000    2.49900000  -22.22300000 M
 H                0   13.90800000    2.15300000  -23.23400000 M
 N                0   14.56900000    3.86800000  -22.43300000 M
 C                0   15.22600000    4.67500000  -21.54600000 M
 H                0   15.49200000    4.30600000  -20.56600000 M
 N                0   15.53000000    5.85800000  -22.03500000 M
 C                0   15.04300000    5.81500000  -23.33200000 M
 C                0   15.04000000    6.75300000  -24.39200000 M
 N                0   15.57100000    7.97600000  -24.29800000 M
 H                0   15.53900000    8.60300000  -25.08900000 M
 H                0   16.00400000    8.27300000  -23.43600000 M
 N                0   14.46700000    6.37900000  -25.55400000 M
 C                0   13.93900000    5.15400000  -25.64700000 M
 H                0   13.47700000    4.83400000  -26.56900000 M
 N                0   13.88200000    4.19400000  -24.73200000 M
 C                0   14.45300000    4.59000000  -23.59000000 M
 C                0   14.25300000    0.76900000  -20.55000000 M
 H                0   14.50600000    0.96000000  -19.50700000 M
 C                0   15.13400000    1.64200000  -21.46000000 M
 H                0   16.09600000    1.81400000  -20.97800000 M
 H                0   15.29100000    1.13300000  -22.41100000 M
 O                0   14.44000000   -0.61200000  -20.81600000 M
 H                0   15.31800000   -0.94800000  -20.61900000 M
 Hg               0    6.23900000   10.72500000  -20.58400000 H
 Cl               0    3.63987200   14.12942800  -24.86791300 H
 Cl               0    6.74079200    9.69642600  -17.08853900 H

C H N P O 0
6-31g(d,p)
****
Hg Cl 0
LANL2DZ
****

Hg Cl 0
LANL2













